Version 4
SHEET 1 880 1032
WIRE -176 256 -224 256
WIRE 160 256 112 256
WIRE 496 256 448 256
WIRE -176 288 -176 256
WIRE -176 288 -224 288
WIRE -112 288 -176 288
WIRE 160 288 160 256
WIRE 160 288 112 288
WIRE 224 288 160 288
WIRE 496 288 496 256
WIRE 496 288 448 288
WIRE 560 288 496 288
WIRE -224 320 -224 288
WIRE -112 320 -112 288
WIRE 112 320 112 288
WIRE 224 320 224 288
WIRE 448 320 448 288
WIRE 560 320 560 288
WIRE -256 336 -288 336
WIRE 80 336 48 336
WIRE 416 336 384 336
WIRE -144 352 -144 336
WIRE -144 352 -192 352
WIRE -32 352 -80 352
WIRE 192 352 192 336
WIRE 192 352 144 352
WIRE 304 352 256 352
WIRE 528 352 528 336
WIRE 528 352 480 352
WIRE 640 352 592 352
WIRE -256 368 -288 368
WIRE -144 368 -144 352
WIRE 80 368 48 368
WIRE 192 368 192 352
WIRE 416 368 384 368
WIRE 528 368 528 352
WIRE -224 416 -224 384
WIRE -176 416 -224 416
WIRE -112 416 -112 384
WIRE -112 416 -176 416
WIRE 112 416 112 384
WIRE 160 416 112 416
WIRE 224 416 224 384
WIRE 224 416 160 416
WIRE 448 416 448 384
WIRE 496 416 448 416
WIRE 560 416 560 384
WIRE 560 416 496 416
WIRE -176 448 -176 416
WIRE -176 448 -224 448
WIRE 160 448 160 416
WIRE 160 448 112 448
WIRE 496 448 496 416
WIRE 496 448 448 448
FLAG 448 256 vdd
FLAG 640 352 o3
FLAG 384 336 a3
FLAG 384 368 b3
FLAG 448 448 vss
FLAG 112 256 vdd
FLAG 304 352 o2
FLAG 48 336 a2
FLAG 48 368 b2
FLAG 112 448 vss
FLAG -224 256 vdd
FLAG -32 352 o1
FLAG -288 336 a1
FLAG -288 368 b1
FLAG -224 448 vss
SYMBOL nand 448 352 R0
SYMATTR InstName X5
SYMBOL nand 560 352 R0
SYMATTR InstName X6
SYMBOL nand 112 352 R0
SYMATTR InstName X1
SYMBOL nand 224 352 R0
SYMATTR InstName X2
SYMBOL nand -224 352 R0
SYMATTR InstName X3
SYMBOL nand -112 352 R0
SYMATTR InstName X4
