Version 4
SHEET 1 880 680
WIRE 64 128 -112 128
WIRE 160 144 128 144
WIRE 64 160 -80 160
WIRE -32 208 -64 208
WIRE 160 208 160 144
WIRE 176 208 160 208
WIRE -80 224 -80 160
WIRE -80 224 -112 224
WIRE -64 224 -64 208
WIRE -64 224 -80 224
WIRE 48 224 32 224
WIRE 304 224 240 224
WIRE -64 240 -64 224
WIRE -32 240 -64 240
WIRE 176 240 160 240
WIRE 48 288 48 224
WIRE 64 288 48 288
WIRE 160 304 160 240
WIRE 160 304 128 304
WIRE 64 320 -112 320
FLAG 304 224 Q
FLAG -112 128 in1
FLAG -112 320 in2
FLAG -112 224 s0
SYMBOL nand 0 224 R0
SYMATTR InstName X1
SYMBOL nand 96 304 R0
SYMATTR InstName X2
SYMBOL nand 208 224 R0
SYMATTR InstName X3
SYMBOL nand 96 144 R0
SYMATTR InstName X4
