Version 4
SHEET 1 2612 1032
WIRE 2288 -128 2144 -128
WIRE 2336 -128 2288 -128
WIRE 2112 -112 1936 -112
WIRE 2256 -96 2176 -96
WIRE 2112 -80 1984 -80
WIRE 2144 -48 2144 -64
WIRE 2144 -48 2128 -48
WIRE 2288 -32 2288 -128
WIRE 2144 -16 2048 -16
WIRE 2192 -16 2144 -16
WIRE 2208 -16 2192 -16
WIRE 2256 -16 2256 -96
WIRE 2400 0 2320 0
WIRE 1984 16 1984 -80
WIRE 1984 16 1936 16
WIRE 2016 16 2016 0
WIRE 2016 16 1984 16
WIRE 2096 16 2080 16
WIRE 2144 16 2144 -16
WIRE 2016 32 2016 16
WIRE 2096 32 2096 16
WIRE 2112 32 2096 32
WIRE 2256 48 2256 16
WIRE 2256 48 2176 48
WIRE 2112 64 1936 64
WIRE 2048 96 2048 48
WIRE 2144 96 2144 80
WIRE 2144 96 2048 96
WIRE 2288 96 2288 32
WIRE 2288 96 2144 96
WIRE 2144 128 2144 96
WIRE 2144 128 2080 128
WIRE 2288 160 2144 160
WIRE 2336 160 2288 160
WIRE 2112 176 1936 176
WIRE 2256 192 2176 192
WIRE 2112 208 1984 208
WIRE 2144 240 2144 224
WIRE 2144 240 2128 240
WIRE 2288 256 2288 160
WIRE 2144 272 2048 272
WIRE 2192 272 2144 272
WIRE 2208 272 2192 272
WIRE 2256 272 2256 192
WIRE 2400 288 2320 288
WIRE 1984 304 1984 208
WIRE 1984 304 1936 304
WIRE 2016 304 2016 288
WIRE 2016 304 1984 304
WIRE 2096 304 2080 304
WIRE 2144 304 2144 272
WIRE 2016 320 2016 304
WIRE 2096 320 2096 304
WIRE 2112 320 2096 320
WIRE 2256 336 2256 304
WIRE 2256 336 2176 336
WIRE 2112 352 1936 352
WIRE 2048 384 2048 336
WIRE 2144 384 2144 368
WIRE 2144 384 2048 384
WIRE 2288 384 2288 320
WIRE 2288 384 2144 384
WIRE 2144 416 2144 384
WIRE 2144 416 2080 416
WIRE 2288 448 2144 448
WIRE 2336 448 2288 448
WIRE 2112 464 1936 464
WIRE 2256 480 2176 480
WIRE 2112 496 1984 496
WIRE 2144 528 2144 512
WIRE 2144 528 2128 528
WIRE 2288 544 2288 448
WIRE 2144 560 2048 560
WIRE 2192 560 2144 560
WIRE 2208 560 2192 560
WIRE 2256 560 2256 480
WIRE 2400 576 2320 576
WIRE 1984 592 1984 496
WIRE 1984 592 1936 592
WIRE 2016 592 2016 576
WIRE 2016 592 1984 592
WIRE 2096 592 2080 592
WIRE 2144 592 2144 560
WIRE 2016 608 2016 592
WIRE 2096 608 2096 592
WIRE 2112 608 2096 608
WIRE 2256 624 2256 592
WIRE 2256 624 2176 624
WIRE 2112 640 1936 640
WIRE 2048 672 2048 624
WIRE 2144 672 2144 656
WIRE 2144 672 2048 672
WIRE 2288 672 2288 608
WIRE 2288 672 2144 672
WIRE 2144 704 2144 672
WIRE 2144 704 2096 704
FLAG 1936 592 sel
FLAG 2400 576 o3
FLAG 1936 464 a3
FLAG 1936 640 b3
FLAG 2096 704 vss
FLAG 2128 528 vss
FLAG 2192 560 vdd
FLAG 2336 448 vdd
FLAG 1936 304 sel
FLAG 2400 288 o2
FLAG 1936 176 a2
FLAG 1936 352 b2
FLAG 2080 416 vss
FLAG 2128 240 vss
FLAG 2192 272 vdd
FLAG 2336 160 vdd
FLAG 1936 16 sel
FLAG 2400 0 o1
FLAG 1936 -112 a1
FLAG 1936 64 b1
FLAG 2080 128 vss
FLAG 2128 -48 vss
FLAG 2192 -16 vdd
FLAG 2336 -128 vdd
SYMBOL nand 2048 592 R0
WINDOW 3 5 30 Left 2
SYMATTR InstName X1
SYMBOL nand 2144 480 R0
WINDOW 3 18 21 Left 2
SYMATTR InstName X2
SYMBOL nand 2144 624 R0
SYMATTR InstName X7
SYMBOL nand 2288 576 R0
SYMATTR InstName X8
SYMBOL nand 2048 304 R0
WINDOW 3 5 30 Left 2
SYMATTR InstName X3
SYMBOL nand 2144 192 R0
WINDOW 3 18 21 Left 2
SYMATTR InstName X4
SYMBOL nand 2144 336 R0
SYMATTR InstName X5
SYMBOL nand 2288 288 R0
SYMATTR InstName X6
SYMBOL nand 2048 16 R0
WINDOW 3 5 30 Left 2
SYMATTR InstName X9
SYMBOL nand 2144 -96 R0
WINDOW 3 18 21 Left 2
SYMATTR InstName X10
SYMBOL nand 2144 48 R0
SYMATTR InstName X11
SYMBOL nand 2288 0 R0
SYMATTR InstName X12
