Version 4
SHEET 1 2612 1032
WIRE 2288 -128 2144 -128
WIRE 2112 -112 1904 -112
WIRE 2256 -96 2176 -96
WIRE 2112 -80 1984 -80
WIRE 2144 -48 2144 -64
WIRE 2144 -48 2128 -48
WIRE 2288 -32 2288 -128
WIRE 2144 -16 2048 -16
WIRE 2192 -16 2144 -16
WIRE 2208 -16 2192 -16
WIRE 2256 -16 2256 -96
WIRE 2512 0 2320 0
WIRE 1984 16 1984 -80
WIRE 1984 16 1904 16
WIRE 2016 16 2016 0
WIRE 2016 16 1984 16
WIRE 2096 16 2080 16
WIRE 2144 16 2144 -16
WIRE 2016 32 2016 16
WIRE 2096 32 2096 16
WIRE 2112 32 2096 32
WIRE 2256 48 2256 16
WIRE 2256 48 2176 48
WIRE 2112 64 1904 64
WIRE 2048 96 2048 48
WIRE 2144 96 2144 80
WIRE 2144 96 2048 96
WIRE 2288 96 2288 32
WIRE 2288 96 2144 96
WIRE 2144 128 2144 96
WIRE 2288 192 2144 192
WIRE 2112 208 1904 208
WIRE 2256 224 2176 224
WIRE 2112 240 1984 240
WIRE 2144 272 2144 256
WIRE 2144 272 2128 272
WIRE 2288 288 2288 192
WIRE 2144 304 2048 304
WIRE 2192 304 2144 304
WIRE 2208 304 2192 304
WIRE 2256 304 2256 224
WIRE 2512 320 2320 320
WIRE 1984 336 1984 240
WIRE 1984 336 1904 336
WIRE 2016 336 2016 320
WIRE 2016 336 1984 336
WIRE 2096 336 2080 336
WIRE 2144 336 2144 304
WIRE 2016 352 2016 336
WIRE 2096 352 2096 336
WIRE 2112 352 2096 352
WIRE 2256 368 2256 336
WIRE 2256 368 2176 368
WIRE 2112 384 1904 384
WIRE 2048 416 2048 368
WIRE 2144 416 2144 400
WIRE 2144 416 2048 416
WIRE 2288 416 2288 352
WIRE 2288 416 2144 416
WIRE 2144 448 2144 416
WIRE 2288 512 2144 512
WIRE 2112 528 1904 528
WIRE 2256 544 2176 544
WIRE 2112 560 1984 560
WIRE 2144 592 2144 576
WIRE 2144 592 2128 592
WIRE 2288 608 2288 512
WIRE 2144 624 2048 624
WIRE 2192 624 2144 624
WIRE 2208 624 2192 624
WIRE 2256 624 2256 544
WIRE 2512 640 2320 640
WIRE 1984 656 1984 560
WIRE 1984 656 1904 656
WIRE 2016 656 2016 640
WIRE 2016 656 1984 656
WIRE 2096 656 2080 656
WIRE 2144 656 2144 624
WIRE 2016 672 2016 656
WIRE 2096 672 2096 656
WIRE 2112 672 2096 672
WIRE 2256 688 2256 656
WIRE 2256 688 2176 688
WIRE 2112 704 1904 704
WIRE 2048 736 2048 688
WIRE 2144 736 2144 720
WIRE 2144 736 2048 736
WIRE 2288 736 2288 672
WIRE 2288 736 2144 736
WIRE 2144 768 2144 736
FLAG 1904 656 sel
FLAG 2512 640 o3
FLAG 1904 528 a3
FLAG 1904 704 b3
FLAG 2144 768 vss
FLAG 2128 592 vss
FLAG 2192 624 vdd
FLAG 2288 512 vdd
FLAG 1904 336 sel
FLAG 2512 320 o2
FLAG 1904 208 a2
FLAG 1904 384 b2
FLAG 2144 448 vss
FLAG 2128 272 vss
FLAG 2192 304 vdd
FLAG 2288 192 vdd
FLAG 1904 16 sel
FLAG 2512 0 o1
FLAG 1904 -112 a1
FLAG 1904 64 b1
FLAG 2144 128 vss
FLAG 2128 -48 vss
FLAG 2192 -16 vdd
FLAG 2288 -128 vdd
SYMBOL nand 2048 656 R0
WINDOW 3 5 30 Left 2
SYMATTR InstName X1
SYMBOL nand 2144 544 R0
WINDOW 3 18 21 Left 2
SYMATTR InstName X2
SYMBOL nand 2144 688 R0
SYMATTR InstName X7
SYMBOL nand 2288 640 R0
SYMATTR InstName X8
SYMBOL nand 2048 336 R0
WINDOW 3 5 30 Left 2
SYMATTR InstName X3
SYMBOL nand 2144 224 R0
WINDOW 3 18 21 Left 2
SYMATTR InstName X4
SYMBOL nand 2144 368 R0
SYMATTR InstName X5
SYMBOL nand 2288 320 R0
SYMATTR InstName X6
SYMBOL nand 2048 16 R0
WINDOW 3 5 30 Left 2
SYMATTR InstName X9
SYMBOL nand 2144 -96 R0
WINDOW 3 18 21 Left 2
SYMATTR InstName X10
SYMBOL nand 2144 48 R0
SYMATTR InstName X11
SYMBOL nand 2288 0 R0
SYMATTR InstName X12
