Version 4
SHEET 1 1192 924
WIRE 240 304 240 272
WIRE 240 304 160 304
WIRE 320 304 240 304
WIRE 160 336 160 304
WIRE 320 336 320 304
WIRE 112 416 80 416
WIRE 240 416 240 368
WIRE 272 416 240 416
WIRE 160 464 160 432
WIRE 240 464 160 464
WIRE 320 464 320 432
WIRE 320 464 240 464
WIRE 240 496 240 464
WIRE 304 496 240 496
WIRE 240 528 240 496
WIRE 192 608 128 608
WIRE 240 672 240 624
WIRE 192 752 128 752
WIRE 240 800 240 768
FLAG 240 272 vdd
FLAG 240 800 vss
FLAG 304 496 Q
FLAG 128 608 in1
FLAG 128 752 in2
FLAG 80 416 in1
FLAG 240 368 in2
SYMBOL nmos018 192 672 R0
SYMATTR InstName M2
SYMATTR Value2 l={ll} w={wn} ad={450n*{wn}} as={450n*{wn}} pd={900n*{wn}} ps={1080n*{wn}}
SYMBOL nmos018 192 528 R0
SYMATTR InstName M3
SYMATTR Value2 l={ll} w={wn} ad={450n*{wn}} as={450n*{wn}} pd={900n*{wn}} ps={1080n*{wn}}
SYMBOL pmos018 272 336 R0
SYMATTR InstName M4
SYMATTR Value2 l={ll} w={wp} ad={450n*{wp}} as={450n*{wp}} pd={900n+{wp}} ps={1080n+{wp}}
SYMBOL pmos018 112 336 R0
SYMATTR InstName M5
SYMATTR Value2 l={ll} w={wp} ad={450n*{wp}} as={450n*{wp}} pd={900n+{wp}} ps={1080n+{wp}}
TEXT 352 624 Left 2 !.lib BU_180nm.lib
TEXT 352 664 Left 2 ;Parametres requis: \nll=longueur \nwn=largeur_nmos \nwp=largeur_pmos
TEXT 352 584 Left 2 !.param ll=180n wn=1u wp=2u
