Version 4
SHEET 1 1192 776
WIRE 496 32 464 32
WIRE 496 64 496 32
WIRE 416 112 384 112
WIRE 416 144 416 112
WIRE 448 144 416 144
WIRE 496 176 496 160
WIRE 416 224 384 224
WIRE 416 256 416 224
WIRE 448 256 416 256
WIRE 496 304 496 272
WIRE 496 304 368 304
WIRE 608 304 496 304
WIRE 672 304 608 304
WIRE 368 352 368 304
WIRE 608 352 608 304
WIRE 288 400 256 400
WIRE 528 400 496 400
WIRE 288 432 288 400
WIRE 320 432 288 432
WIRE 528 432 528 400
WIRE 560 432 528 432
WIRE 368 480 368 448
WIRE 480 480 368 480
WIRE 608 480 608 448
WIRE 608 480 480 480
WIRE 480 512 480 480
WIRE 480 512 448 512
FLAG 464 32 vdd
FLAG 448 512 vss
FLAG 672 304 Q
FLAG 256 400 in1
FLAG 496 400 in2
FLAG 384 112 in1
FLAG 384 224 in2
SYMBOL nmos018 320 352 R0
SYMATTR InstName M2
SYMBOL nmos018 560 352 R0
SYMATTR InstName M3
SYMBOL pmos018 448 64 R0
SYMATTR InstName M5
SYMBOL pmos018 448 176 R0
SYMATTR InstName M6
TEXT 640 48 Left 2 !.lib BU_180nm.lib
TEXT 640 88 Left 2 ;Parametres requis: \nll=longueur \nwn=largeur_nmos \nwp=largeur_pmos
