Version 4
SHEET 1 880 680
WIRE 256 32 256 -64
WIRE 256 32 176 32
WIRE 352 32 256 32
WIRE 176 64 176 32
WIRE 352 64 352 32
WIRE 128 144 96 144
WIRE 176 192 176 160
WIRE 256 192 176 192
WIRE 352 192 352 160
WIRE 352 192 256 192
WIRE 304 224 304 144
WIRE 352 224 304 224
WIRE 256 256 256 192
WIRE 416 256 256 256
WIRE 256 272 256 256
FLAG 352 224 a
FLAG 96 144 b
FLAG 416 256 Q
FLAG 256 272 vss
FLAG 256 -64 vdd
SYMBOL nmos018 128 64 R0
SYMATTR InstName M1
SYMBOL nmos018 304 64 R0
SYMATTR InstName M2
