Version 4
SHEET 1 1192 1016
WIRE -240 -704 -272 -704
WIRE -240 -672 -240 -704
WIRE -240 -672 -368 -672
WIRE -112 -672 -240 -672
WIRE -368 -624 -368 -672
WIRE -112 -624 -112 -672
WIRE -384 -608 -432 -608
WIRE -320 -608 -336 -608
WIRE -128 -608 -160 -608
WIRE -64 -608 -80 -608
WIRE -368 -560 -368 -592
WIRE -240 -560 -368 -560
WIRE -112 -560 -112 -592
WIRE -112 -560 -240 -560
WIRE -240 -528 -240 -560
WIRE -240 -528 -272 -528
WIRE -240 -480 -272 -480
WIRE -240 -448 -240 -480
WIRE -240 -448 -384 -448
WIRE -96 -448 -240 -448
WIRE -384 -416 -384 -448
WIRE -96 -416 -96 -448
WIRE -464 -368 -496 -368
WIRE -384 -368 -384 -400
WIRE -176 -368 -208 -368
WIRE -96 -368 -96 -400
WIRE -464 -336 -464 -368
WIRE -432 -336 -464 -336
WIRE -176 -336 -176 -368
WIRE -144 -336 -176 -336
WIRE -384 -208 -384 -320
WIRE -336 -208 -384 -208
WIRE -96 -208 -96 -320
WIRE -64 -208 -96 -208
WIRE -384 -192 -384 -208
WIRE -96 -192 -96 -208
WIRE -336 -144 -336 -208
WIRE -336 -144 -384 -144
WIRE -64 -144 -64 -208
WIRE -64 -144 -96 -144
WIRE -432 -112 -448 -112
WIRE -144 -112 -160 -112
WIRE -448 -64 -448 -112
WIRE -448 -64 -480 -64
WIRE -160 -64 -160 -112
WIRE -160 -64 -192 -64
WIRE -384 -16 -384 -96
WIRE -256 -16 -384 -16
WIRE -96 -16 -96 -96
WIRE -96 -16 -256 -16
WIRE -256 32 -256 -16
WIRE -128 32 -256 32
WIRE -256 80 -256 32
WIRE -256 80 -400 80
WIRE -80 80 -256 80
WIRE -400 96 -400 80
WIRE -80 96 -80 80
WIRE -160 144 -192 144
WIRE -496 176 -512 176
WIRE -448 176 -496 176
WIRE -400 176 -400 144
WIRE -160 176 -160 144
WIRE -128 176 -160 176
WIRE -80 176 -80 144
WIRE -400 240 -400 192
WIRE -80 240 -80 192
WIRE -80 240 -400 240
WIRE -400 272 -400 240
WIRE -80 272 -80 240
WIRE -160 320 -192 320
WIRE -448 352 -512 352
WIRE -400 352 -400 320
WIRE -160 352 -160 320
WIRE -128 352 -160 352
WIRE -80 352 -80 320
WIRE -400 400 -400 368
WIRE -256 400 -400 400
WIRE -80 400 -80 368
WIRE -80 400 -256 400
WIRE -256 432 -256 400
WIRE -256 432 -288 432
FLAG -288 432 vss
FLAG -272 -480 vdd
FLAG -128 32 Q
FLAG -496 -368 in2
FLAG -496 176 in1
FLAG -480 -64 in1_NOT
FLAG -192 144 in2_NOT
FLAG -192 320 in2
FLAG -208 -368 in1
FLAG -192 -64 in2_NOT
FLAG -64 -608 in1_NOT
FLAG -432 -608 in2
FLAG -320 -608 in2_NOT
FLAG -160 -608 in1
FLAG -272 -704 vdd
FLAG -272 -528 vss
FLAG -512 352 in1_NOT
SYMBOL pmos018 -144 -416 R0
SYMATTR InstName M1
SYMATTR Value2 l={ll} w={wp * 2} ad={450n*{wp}} as={450n*{wp}} pd={900n+{wp}} ps={1080n+{wp}}
SYMBOL nmos018 -448 272 R0
SYMATTR InstName M2
SYMATTR Value2 l={ll} w={wn * 2} ad={450n*{wn}} as={450n*{wn}} pd={900n*{wn}} ps={1080n*{wn}}
SYMBOL pmos018 -144 -192 R0
SYMATTR InstName M3
SYMATTR Value2 l={ll} w={wp * 2} ad={450n*{wp}} as={450n*{wp}} pd={900n+{wp}} ps={1080n+{wp}}
SYMBOL pmos018 -432 -416 R0
SYMATTR InstName M4
SYMATTR Value2 l={ll} w={wp * 2} ad={450n*{wp}} as={450n*{wp}} pd={900n+{wp}} ps={1080n+{wp}}
SYMBOL nmos018 -448 96 R0
SYMATTR InstName M5
SYMATTR Value2 l={ll} w={wn * 2} ad={450n*{wn}} as={450n*{wn}} pd={900n*{wn}} ps={1080n*{wn}}
SYMBOL nmos018 -128 96 R0
SYMATTR InstName M6
SYMATTR Value2 l={ll} w={wn * 2} ad={450n*{wn}} as={450n*{wn}} pd={900n*{wn}} ps={1080n*{wn}}
SYMBOL pmos018 -432 -192 R0
SYMATTR InstName M10
SYMATTR Value2 l={ll} w={wp * 2} ad={450n*{wp}} as={450n*{wp}} pd={900n+{wp}} ps={1080n+{wp}}
SYMBOL nmos018 -128 272 R0
SYMATTR InstName M11
SYMATTR Value2 l={ll} w={wn * 2} ad={450n*{wn}} as={450n*{wn}} pd={900n*{wn}} ps={1080n*{wn}}
SYMBOL inv -112 -608 R0
SYMATTR InstName X1
SYMBOL inv -368 -608 R0
SYMATTR InstName X2
TEXT -864 112 Left 2 !.lib BU_180nm.lib
TEXT -872 -24 Left 2 ;Parametres requis: \nll=longueur \nwn=largeur_nmos \nwp=largeur_pmos
TEXT -920 136 Left 2 !.param ll=180n wn=180n wp=475n
