Version 4
SHEET 1 1192 1016
WIRE 144 -576 96 -576
WIRE -240 -480 -272 -480
WIRE -240 -448 -240 -480
WIRE -240 -448 -384 -448
WIRE -96 -448 -240 -448
WIRE -384 -416 -384 -448
WIRE -96 -416 -96 -448
WIRE -464 -368 -496 -368
WIRE -176 -368 -208 -368
WIRE -464 -336 -464 -368
WIRE -432 -336 -464 -336
WIRE -176 -336 -176 -368
WIRE -144 -336 -176 -336
WIRE -544 -288 -608 -288
WIRE -384 -288 -384 -320
WIRE -384 -288 -544 -288
WIRE -96 -288 -96 -320
WIRE 96 -288 -96 -288
WIRE 128 -288 96 -288
WIRE -544 -256 -544 -288
WIRE 96 -256 96 -288
WIRE -624 -208 -640 -208
WIRE 16 -208 0 -208
WIRE -384 -192 -384 -288
WIRE -96 -192 -96 -288
WIRE -624 -176 -624 -208
WIRE -592 -176 -624 -176
WIRE -384 -176 -384 -192
WIRE 16 -176 16 -208
WIRE 48 -176 16 -176
WIRE -544 -112 -544 -160
WIRE -544 -112 -576 -112
WIRE -432 -112 -448 -112
WIRE -144 -112 -160 -112
WIRE 96 -112 96 -160
WIRE 96 -112 64 -112
WIRE -448 -64 -448 -112
WIRE -448 -64 -480 -64
WIRE -160 -64 -160 -112
WIRE -160 -64 -192 -64
WIRE -384 -16 -384 -96
WIRE -256 -16 -384 -16
WIRE -96 -16 -96 -96
WIRE -96 -16 -256 -16
WIRE -256 32 -256 -16
WIRE -128 32 -256 32
WIRE -256 80 -256 32
WIRE -256 80 -400 80
WIRE -80 80 -256 80
WIRE -400 96 -400 80
WIRE -80 96 -80 80
WIRE -160 144 -192 144
WIRE -448 176 -512 176
WIRE -160 176 -160 144
WIRE -128 176 -160 176
WIRE -400 240 -400 192
WIRE -80 240 -80 192
WIRE -80 240 -400 240
WIRE -512 256 -512 176
WIRE -512 256 -528 256
WIRE -400 272 -400 240
WIRE -80 272 -80 240
WIRE -160 320 -192 320
WIRE -512 352 -512 256
WIRE -448 352 -512 352
WIRE -160 352 -160 320
WIRE -128 352 -160 352
WIRE -400 400 -400 368
WIRE -256 400 -400 400
WIRE -80 400 -80 368
WIRE -80 400 -256 400
WIRE -256 432 -256 400
WIRE -256 432 -288 432
FLAG -288 432 vss
FLAG -272 -480 vdd
FLAG -128 32 Q
FLAG -496 -368 in2
FLAG -528 256 in1
FLAG -608 -288 in2_NOT
FLAG -480 -64 in1_NOT
FLAG -192 144 in2_NOT
FLAG -192 320 in2_NOT
FLAG -640 -208 in2
FLAG -208 -368 in1
FLAG -192 -64 in2_NOT
FLAG 128 -288 in1_NOT
FLAG 64 -112 vss
FLAG -576 -112 vss
FLAG 0 -208 in1
SYMBOL pmos018 -144 -416 R0
SYMATTR InstName M1
SYMATTR Value2 l={ll} w={wp} ad={450n*{wp}} as={450n*{wp}} pd={900n+{wp}} ps={1080n+{wp}}
SYMBOL nmos018 -448 272 R0
SYMATTR InstName M2
SYMATTR Value2 l={ll} w={wn} ad={450n*{wn}} as={450n*{wn}} pd={900n*{wn}} ps={1080n*{wn}}
SYMBOL pmos018 -144 -192 R0
SYMATTR InstName M3
SYMATTR Value2 l={ll} w={wp} ad={450n*{wp}} as={450n*{wp}} pd={900n+{wp}} ps={1080n+{wp}}
SYMBOL pmos018 -432 -416 R0
SYMATTR InstName M4
SYMATTR Value2 l={ll} w={wp} ad={450n*{wp}} as={450n*{wp}} pd={900n+{wp}} ps={1080n+{wp}}
SYMBOL nmos018 -448 96 R0
SYMATTR InstName M5
SYMATTR Value2 l={ll} w={wn} ad={450n*{wn}} as={450n*{wn}} pd={900n*{wn}} ps={1080n*{wn}}
SYMBOL nmos018 -128 96 R0
SYMATTR InstName M6
SYMATTR Value2 l={ll} w={wn} ad={450n*{wn}} as={450n*{wn}} pd={900n*{wn}} ps={1080n*{wn}}
SYMBOL nmos018 -592 -256 R0
SYMATTR InstName M7
SYMATTR Value2 l={ll} w={wn} ad={450n*{wn}} as={450n*{wn}} pd={900n*{wn}} ps={1080n*{wn}}
SYMBOL nmos018 48 -256 R0
SYMATTR InstName M8
SYMATTR Value2 l={ll} w={wn} ad={450n*{wn}} as={450n*{wn}} pd={900n*{wn}} ps={1080n*{wn}}
SYMBOL pmos018 -432 -192 R0
SYMATTR InstName M10
SYMATTR Value2 l={ll} w={wp} ad={450n*{wp}} as={450n*{wp}} pd={900n+{wp}} ps={1080n+{wp}}
SYMBOL nmos018 -128 272 R0
SYMATTR InstName M11
SYMATTR Value2 l={ll} w={wn} ad={450n*{wn}} as={450n*{wn}} pd={900n*{wn}} ps={1080n*{wn}}
TEXT -864 112 Left 2 !.lib BU_180nm.lib
TEXT -872 -24 Left 2 ;Parametres requis: \nll=longueur \nwn=largeur_nmos \nwp=largeur_pmos
TEXT -920 136 Left 2 !.param ll=180n wn=180n wp=450n
