Version 4
SHEET 1 1192 1016
WIRE 144 -576 96 -576
WIRE -240 -448 -240 -512
WIRE -240 -448 -384 -448
WIRE -128 -448 -240 -448
WIRE -384 -416 -384 -448
WIRE -128 -416 -128 -448
WIRE -432 -336 -496 -336
WIRE -176 -336 -208 -336
WIRE -128 -304 -128 -320
WIRE 80 -304 -128 -304
WIRE 128 -304 80 -304
WIRE 80 -272 80 -304
WIRE -928 -256 -928 -304
WIRE -736 -256 -928 -256
WIRE -384 -256 -384 -320
WIRE -384 -256 -736 -256
WIRE -288 -208 -304 -208
WIRE -448 -192 -624 -192
WIRE -384 -192 -384 -256
WIRE -128 -192 -128 -304
WIRE -784 -176 -848 -176
WIRE -384 -176 -384 -192
WIRE -624 -144 -624 -192
WIRE -592 -144 -624 -144
WIRE -736 -128 -736 -160
WIRE 80 -128 80 -176
WIRE -448 -112 -448 -192
WIRE -432 -112 -448 -112
WIRE -304 -112 -304 -208
WIRE -176 -112 -304 -112
WIRE -384 -64 -384 -96
WIRE -224 -64 -384 -64
WIRE -128 -64 -128 -96
WIRE -128 -64 -224 -64
WIRE -224 16 -224 -64
WIRE -96 16 -224 16
WIRE -224 80 -224 16
WIRE -224 80 -400 80
WIRE -32 80 -224 80
WIRE -400 96 -400 80
WIRE -32 96 -32 80
WIRE -112 128 -288 128
WIRE -448 176 -496 176
WIRE -288 176 -288 128
WIRE -256 176 -288 176
WIRE -112 176 -112 128
WIRE -80 176 -112 176
WIRE -400 240 -400 192
WIRE -32 240 -32 192
WIRE -32 240 -400 240
WIRE -400 272 -400 240
WIRE -32 272 -32 240
WIRE -112 304 -288 304
WIRE -448 352 -496 352
WIRE -288 352 -288 304
WIRE -256 352 -288 352
WIRE -112 352 -112 304
WIRE -80 352 -112 352
WIRE -400 400 -400 368
WIRE -160 400 -400 400
WIRE -32 400 -32 368
WIRE -32 400 -160 400
WIRE -160 432 -160 400
FLAG -160 432 vss
FLAG -240 -512 vdd
FLAG -96 16 Q
FLAG -496 -336 in2
FLAG -496 352 in1
FLAG -496 176 in1
FLAG -928 -304 in2_NOT
IOPIN -928 -304 BiDir
FLAG -592 -144 in1_NOT
IOPIN -592 -144 BiDir
FLAG -256 176 in2_NOT
IOPIN -256 176 BiDir
FLAG -256 352 in2_NOT
IOPIN -256 352 BiDir
FLAG -848 -176 in2
FLAG -208 -336 in1
FLAG -288 -208 in2_NOT
IOPIN -288 -208 BiDir
FLAG 128 -304 in1_NOT
IOPIN 128 -304 BiDir
FLAG 80 -128 vss
FLAG -736 -128 vss
SYMBOL pmos018 -176 -416 R0
SYMATTR InstName M1
SYMBOL nmos018 -448 272 R0
SYMATTR InstName M2
SYMBOL pmos018 -176 -192 R0
SYMATTR InstName M3
SYMBOL pmos018 -432 -416 R0
SYMATTR InstName M4
SYMBOL nmos018 -448 96 R0
SYMATTR InstName M5
SYMBOL nmos018 -80 96 R0
SYMATTR InstName M6
SYMBOL nmos018 -784 -256 R0
SYMATTR InstName M7
SYMBOL nmos018 32 -272 R0
SYMATTR InstName M8
SYMBOL pmos018 -432 -192 R0
SYMATTR InstName M10
SYMBOL nmos018 -80 272 R0
SYMATTR InstName M11
TEXT -888 144 Left 2 !.lib BU_180nm.lib
TEXT -896 8 Left 2 ;Parametres requis: \nll=longueur \nwn=largeur_nmos \nwp=largeur_pmos
